src/mambo_power/cases/data/case14_v33.raw
0,   100.00, 33, 0, 0, 60.00     / hand-authored from fixtures/matpower/case14.m (see fixtures/PROVENANCE-raw.md)
IEEE 14 BUS TEST CASE -- transcription of MATPOWER case14.m, PSS/E RAW v33 layout
mambo-power fixture; BASKV 0 kept as in the source; no cost data exists in RAW
     1,'Bus 1     HV',     0.0000,3,   1,   1,   1,1.06000,   0.0000,1.06000,0.94000,1.06000,0.94000
     2,'Bus 2     HV',     0.0000,2,   1,   1,   1,1.04500,  -4.9800,1.06000,0.94000,1.06000,0.94000
     3,'Bus 3     HV',     0.0000,2,   1,   1,   1,1.01000, -12.7200,1.06000,0.94000,1.06000,0.94000
     4,'Bus 4     HV',     0.0000,1,   1,   1,   1,1.01900, -10.3300,1.06000,0.94000,1.06000,0.94000
     5,'Bus 5     HV',     0.0000,1,   1,   1,   1,1.02000,  -8.7800,1.06000,0.94000,1.06000,0.94000
     6,'Bus 6     LV',     0.0000,2,   1,   1,   1,1.07000, -14.2200,1.06000,0.94000,1.06000,0.94000
     7,'Bus 7     ZV',     0.0000,1,   1,   1,   1,1.06200, -13.3700,1.06000,0.94000,1.06000,0.94000
     8,'Bus 8     TV',     0.0000,2,   1,   1,   1,1.09000, -13.3600,1.06000,0.94000,1.06000,0.94000
     9,'Bus 9     LV',     0.0000,1,   1,   1,   1,1.05600, -14.9400,1.06000,0.94000,1.06000,0.94000
    10,'Bus 10    LV',     0.0000,1,   1,   1,   1,1.05100, -15.1000,1.06000,0.94000,1.06000,0.94000
    11,'Bus 11    LV',     0.0000,1,   1,   1,   1,1.05700, -14.7900,1.06000,0.94000,1.06000,0.94000
    12,'Bus 12    LV',     0.0000,1,   1,   1,   1,1.05500, -15.0700,1.06000,0.94000,1.06000,0.94000
    13,'Bus 13    LV',     0.0000,1,   1,   1,   1,1.05000, -15.1600,1.06000,0.94000,1.06000,0.94000
    14,'Bus 14    LV',     0.0000,1,   1,   1,   1,1.03600, -16.0400,1.06000,0.94000,1.06000,0.94000
0 / END OF BUS DATA, BEGIN LOAD DATA
     2,'1 ',1,   1,   1,    21.700,    12.700,     0.000,     0.000,     0.000,     0.000,   1,1,0
     3,'1 ',1,   1,   1,    94.200,    19.000,     0.000,     0.000,     0.000,     0.000,   1,1,0
     4,'1 ',1,   1,   1,    47.800,    -3.900,     0.000,     0.000,     0.000,     0.000,   1,1,0
     5,'1 ',1,   1,   1,     7.600,     1.600,     0.000,     0.000,     0.000,     0.000,   1,1,0
     6,'1 ',1,   1,   1,    11.200,     7.500,     0.000,     0.000,     0.000,     0.000,   1,1,0
     9,'1 ',1,   1,   1,    29.500,    16.600,     0.000,     0.000,     0.000,     0.000,   1,1,0
    10,'1 ',1,   1,   1,     9.000,     5.800,     0.000,     0.000,     0.000,     0.000,   1,1,0
    11,'1 ',1,   1,   1,     3.500,     1.800,     0.000,     0.000,     0.000,     0.000,   1,1,0
    12,'1 ',1,   1,   1,     6.100,     1.600,     0.000,     0.000,     0.000,     0.000,   1,1,0
    13,'1 ',1,   1,   1,    13.500,     5.800,     0.000,     0.000,     0.000,     0.000,   1,1,0
    14,'1 ',1,   1,   1,    14.900,     5.000,     0.000,     0.000,     0.000,     0.000,   1,1,0
0 / END OF LOAD DATA, BEGIN FIXED SHUNT DATA
     9,'1 ',1,     0.000,    19.000
0 / END OF FIXED SHUNT DATA, BEGIN GENERATOR DATA
     1,'1 ',   232.400,   -16.900,    10.000,     0.000,1.06000,    0,   100.000, 0.00000, 1.00000, 0.00000, 0.00000,1.00000,1,  100.0,   332.400,     0.000,   1,1.0000,   0,1.0000,   0,1.0000,   0,1.0000,0,1.0000
     2,'1 ',    40.000,    42.400,    50.000,   -40.000,1.04500,    0,   100.000, 0.00000, 1.00000, 0.00000, 0.00000,1.00000,1,  100.0,   140.000,     0.000,   1,1.0000,   0,1.0000,   0,1.0000,   0,1.0000,0,1.0000
     3,'1 ',     0.000,    23.400,    40.000,     0.000,1.01000,    0,   100.000, 0.00000, 1.00000, 0.00000, 0.00000,1.00000,1,  100.0,   100.000,     0.000,   1,1.0000,   0,1.0000,   0,1.0000,   0,1.0000,0,1.0000
     6,'1 ',     0.000,    12.200,    24.000,    -6.000,1.07000,    0,   100.000, 0.00000, 1.00000, 0.00000, 0.00000,1.00000,1,  100.0,   100.000,     0.000,   1,1.0000,   0,1.0000,   0,1.0000,   0,1.0000,0,1.0000
     8,'1 ',     0.000,    17.400,    24.000,    -6.000,1.09000,    0,   100.000, 0.00000, 1.00000, 0.00000, 0.00000,1.00000,1,  100.0,   100.000,     0.000,   1,1.0000,   0,1.0000,   0,1.0000,   0,1.0000,0,1.0000
0 / END OF GENERATOR DATA, BEGIN BRANCH DATA
     1,     2,'1 ', 0.01938, 0.05917, 0.05280,   0.00,   0.00,   0.00, 0.00000, 0.00000, 0.00000, 0.00000,1,1,   0.00,   1,1.0000,   0,1.0000,   0,1.0000,   0,1.0000
     1,     5,'1 ', 0.05403, 0.22304, 0.04920,   0.00,   0.00,   0.00, 0.00000, 0.00000, 0.00000, 0.00000,1,1,   0.00,   1,1.0000,   0,1.0000,   0,1.0000,   0,1.0000
     2,     3,'1 ', 0.04699, 0.19797, 0.04380,   0.00,   0.00,   0.00, 0.00000, 0.00000, 0.00000, 0.00000,1,1,   0.00,   1,1.0000,   0,1.0000,   0,1.0000,   0,1.0000
     2,     4,'1 ', 0.05811, 0.17632, 0.03400,   0.00,   0.00,   0.00, 0.00000, 0.00000, 0.00000, 0.00000,1,1,   0.00,   1,1.0000,   0,1.0000,   0,1.0000,   0,1.0000
     2,     5,'1 ', 0.05695, 0.17388, 0.03460,   0.00,   0.00,   0.00, 0.00000, 0.00000, 0.00000, 0.00000,1,1,   0.00,   1,1.0000,   0,1.0000,   0,1.0000,   0,1.0000
     3,     4,'1 ', 0.06701, 0.17103, 0.01280,   0.00,   0.00,   0.00, 0.00000, 0.00000, 0.00000, 0.00000,1,1,   0.00,   1,1.0000,   0,1.0000,   0,1.0000,   0,1.0000
     4,     5,'1 ', 0.01335, 0.04211, 0.00000,   0.00,   0.00,   0.00, 0.00000, 0.00000, 0.00000, 0.00000,1,1,   0.00,   1,1.0000,   0,1.0000,   0,1.0000,   0,1.0000
     6,    11,'1 ', 0.09498, 0.19890, 0.00000,   0.00,   0.00,   0.00, 0.00000, 0.00000, 0.00000, 0.00000,1,1,   0.00,   1,1.0000,   0,1.0000,   0,1.0000,   0,1.0000
     6,    12,'1 ', 0.12291, 0.25581, 0.00000,   0.00,   0.00,   0.00, 0.00000, 0.00000, 0.00000, 0.00000,1,1,   0.00,   1,1.0000,   0,1.0000,   0,1.0000,   0,1.0000
     6,    13,'1 ', 0.06615, 0.13027, 0.00000,   0.00,   0.00,   0.00, 0.00000, 0.00000, 0.00000, 0.00000,1,1,   0.00,   1,1.0000,   0,1.0000,   0,1.0000,   0,1.0000
     7,     8,'1 ', 0.00000, 0.17615, 0.00000,   0.00,   0.00,   0.00, 0.00000, 0.00000, 0.00000, 0.00000,1,1,   0.00,   1,1.0000,   0,1.0000,   0,1.0000,   0,1.0000
     7,     9,'1 ', 0.00000, 0.11001, 0.00000,   0.00,   0.00,   0.00, 0.00000, 0.00000, 0.00000, 0.00000,1,1,   0.00,   1,1.0000,   0,1.0000,   0,1.0000,   0,1.0000
     9,    10,'1 ', 0.03181, 0.08450, 0.00000,   0.00,   0.00,   0.00, 0.00000, 0.00000, 0.00000, 0.00000,1,1,   0.00,   1,1.0000,   0,1.0000,   0,1.0000,   0,1.0000
     9,    14,'1 ', 0.12711, 0.27038, 0.00000,   0.00,   0.00,   0.00, 0.00000, 0.00000, 0.00000, 0.00000,1,1,   0.00,   1,1.0000,   0,1.0000,   0,1.0000,   0,1.0000
    10,    11,'1 ', 0.08205, 0.19207, 0.00000,   0.00,   0.00,   0.00, 0.00000, 0.00000, 0.00000, 0.00000,1,1,   0.00,   1,1.0000,   0,1.0000,   0,1.0000,   0,1.0000
    12,    13,'1 ', 0.22092, 0.19988, 0.00000,   0.00,   0.00,   0.00, 0.00000, 0.00000, 0.00000, 0.00000,1,1,   0.00,   1,1.0000,   0,1.0000,   0,1.0000,   0,1.0000
    13,    14,'1 ', 0.17093, 0.34802, 0.00000,   0.00,   0.00,   0.00, 0.00000, 0.00000, 0.00000, 0.00000,1,1,   0.00,   1,1.0000,   0,1.0000,   0,1.0000,   0,1.0000
0 / END OF BRANCH DATA, BEGIN TRANSFORMER DATA
     4,     7,     0,'1 ',1,1,1,  0.00000,  0.00000,2,'            ',1,   1,1.0000,   0,1.0000,   0,1.0000,   0,1.0000,'            '
   0.00000,   0.20912,   100.00
0.97800,   0.000,   0.000,     0.00,     0.00,     0.00,0,     0, 1.10000, 0.90000, 1.10000, 0.90000, 33, 0, 0.00000, 0.00000, 0.000
1.00000,   0.000
     4,     9,     0,'1 ',1,1,1,  0.00000,  0.00000,2,'            ',1,   1,1.0000,   0,1.0000,   0,1.0000,   0,1.0000,'            '
   0.00000,   0.55618,   100.00
0.96900,   0.000,   0.000,     0.00,     0.00,     0.00,0,     0, 1.10000, 0.90000, 1.10000, 0.90000, 33, 0, 0.00000, 0.00000, 0.000
1.00000,   0.000
     5,     6,     0,'1 ',1,1,1,  0.00000,  0.00000,2,'            ',1,   1,1.0000,   0,1.0000,   0,1.0000,   0,1.0000,'            '
   0.00000,   0.25202,   100.00
0.93200,   0.000,   0.000,     0.00,     0.00,     0.00,0,     0, 1.10000, 0.90000, 1.10000, 0.90000, 33, 0, 0.00000, 0.00000, 0.000
1.00000,   0.000
0 / END OF TRANSFORMER DATA, BEGIN AREA DATA
     1,     1,     0.000,   999.990,'IEEE14      '
0 / END OF AREA DATA, BEGIN TWO-TERMINAL DC DATA
0 / END OF TWO-TERMINAL DC DATA, BEGIN VSC DC LINE DATA
0 / END OF VSC DC LINE DATA, BEGIN IMPEDANCE CORRECTION DATA
0 / END OF IMPEDANCE CORRECTION DATA, BEGIN MULTI-TERMINAL DC DATA
0 / END OF MULTI-TERMINAL DC DATA, BEGIN MULTI-SECTION LINE DATA
0 / END OF MULTI-SECTION LINE DATA, BEGIN ZONE DATA
     1,'1           '
0 / END OF ZONE DATA, BEGIN INTER-AREA TRANSFER DATA
0 / END OF INTER-AREA TRANSFER DATA, BEGIN OWNER DATA
0 / END OF OWNER DATA, BEGIN FACTS DEVICE DATA
0 / END OF FACTS DEVICE DATA, BEGIN SWITCHED SHUNT DATA
0 / END OF SWITCHED SHUNT DATA, BEGIN GNE DATA
0 / END OF GNE DATA, BEGIN INDUCTION MACHINE DATA
0 / END OF INDUCTION MACHINE DATA
Q
